@<TRIPOS>MOLECULE
TDC
   44    43     1     0     0
SMALL
bcc


@<TRIPOS>ATOM
      1 C1          -1.2070     8.2840     0.0000 c3         0 TDC      -0.092100
      2 H1          -1.8550     8.2670     0.8860 hc         0 TDC       0.032700
      3 H2          -1.8550     8.2670    -0.8860 hc         0 TDC       0.032700
      4 H3          -0.6660     9.2370     0.0000 hc         0 TDC       0.032700
      5 C2          -0.2400     7.0890     0.0000 c3         0 TDC      -0.080400
      6 H4           0.4180     7.1480    -0.8800 hc         0 TDC       0.038700
      7 H5           0.4180     7.1480     0.8800 hc         0 TDC       0.038700
      8 C3          -0.9610     5.7280     0.0000 c3         0 TDC      -0.079400
      9 H6          -1.6190     5.6670    -0.8800 hc         0 TDC       0.039700
     10 H7          -1.6190     5.6670     0.8800 hc         0 TDC       0.039700
     11 C4           0.0000     4.5250     0.0000 c3         0 TDC      -0.079400
     12 H8           0.6580     4.5870     0.8800 hc         0 TDC       0.039700
     13 H9           0.6580     4.5870    -0.8800 hc         0 TDC       0.039700
     14 C5          -0.7210     3.1640     0.0000 c3         0 TDC      -0.079400
     15 H10         -1.3790     3.1030    -0.8800 hc         0 TDC       0.039700
     16 H11         -1.3790     3.1030     0.8800 hc         0 TDC       0.039700
     17 C6           0.2400     1.9620     0.0000 c3         0 TDC      -0.079400
     18 H12          0.8990     2.0230     0.8800 hc         0 TDC       0.039700
     19 H13          0.8990     2.0230    -0.8800 hc         0 TDC       0.039700
     20 C7          -0.4800     0.6010     0.0000 c3         0 TDC      -0.079400
     21 H14         -1.1390     0.5400    -0.8800 hc         0 TDC       0.039700
     22 H15         -1.1390     0.5400     0.8800 hc         0 TDC       0.039700
     23 C8           0.4800    -0.6010     0.0000 c3         0 TDC      -0.079400
     24 H16          1.1390    -0.5400     0.8800 hc         0 TDC       0.039700
     25 H17          1.1390    -0.5400    -0.8800 hc         0 TDC       0.039700
     26 C9          -0.2400    -1.9620     0.0000 c3         0 TDC      -0.079400
     27 H18         -0.8990    -2.0230    -0.8800 hc         0 TDC       0.039700
     28 H19         -0.8990    -2.0230     0.8800 hc         0 TDC       0.039700
     29 C10          0.7210    -3.1640     0.0000 c3         0 TDC      -0.079400
     30 H20          1.3790    -3.1030     0.8800 hc         0 TDC       0.039700
     31 H21          1.3790    -3.1030    -0.8800 hc         0 TDC       0.039700
     32 C11          0.0000    -4.5250     0.0000 c3         0 TDC      -0.079400
     33 H22         -0.6580    -4.5870    -0.8800 hc         0 TDC       0.039700
     34 H23         -0.6580    -4.5870     0.8800 hc         0 TDC       0.039700
     35 C12          0.9610    -5.7280     0.0000 c3         0 TDC      -0.079400
     36 H24          1.6190    -5.6670     0.8800 hc         0 TDC       0.039700
     37 H25          1.6190    -5.6670    -0.8800 hc         0 TDC       0.039700
     38 C13          0.2400    -7.0890     0.0000 c3         0 TDC      -0.080400
     39 H26         -0.4180    -7.1480    -0.8800 hc         0 TDC       0.038700
     40 H27         -0.4180    -7.1480     0.8800 hc         0 TDC       0.038700
     41 C14          1.2070    -8.2840     0.0000 c3         0 TDC      -0.092100
     42 H28          1.8550    -8.2670     0.8860 hc         0 TDC       0.032700
     43 H29          0.6660    -9.2370     0.0000 hc         0 TDC       0.032700
     44 H30          1.8550    -8.2670    -0.8860 hc         0 TDC       0.032700
@<TRIPOS>BOND
     1     1     2 1   
     2     1     3 1   
     3     1     4 1   
     4     1     5 1   
     5     5     6 1   
     6     5     7 1   
     7     5     8 1   
     8     8     9 1   
     9     8    10 1   
    10     8    11 1   
    11    11    12 1   
    12    11    13 1   
    13    11    14 1   
    14    14    15 1   
    15    14    16 1   
    16    14    17 1   
    17    17    18 1   
    18    17    19 1   
    19    17    20 1   
    20    20    21 1   
    21    20    22 1   
    22    20    23 1   
    23    23    24 1   
    24    23    25 1   
    25    23    26 1   
    26    26    27 1   
    27    26    28 1   
    28    26    29 1   
    29    29    30 1   
    30    29    31 1   
    31    29    32 1   
    32    32    33 1   
    33    32    34 1   
    34    32    35 1   
    35    35    36 1   
    36    35    37 1   
    37    35    38 1   
    38    38    39 1   
    39    38    40 1   
    40    38    41 1   
    41    41    42 1   
    42    41    43 1   
    43    41    44 1   
@<TRIPOS>SUBSTRUCTURE
     1 TDC         1 TEMP              0 ****  ****    0 ROOT
