@<TRIPOS>MOLECULE
ISN
   62    61     1     0     0
SMALL
bcc


@<TRIPOS>ATOM
      1 C1          12.2240    -0.3540     0.0000 c3         0 ISN      -0.092100
      2 H1          12.2720    -1.0000    -0.8860 hc         0 ISN       0.032700
      3 H2          12.2720    -1.0000     0.8860 hc         0 ISN       0.032700
      4 H3          13.1190     0.2800     0.0000 hc         0 ISN       0.032700
      5 C2          10.9390     0.4900     0.0000 c3         0 ISN      -0.080400
      6 H4          10.9330     1.1500     0.8800 hc         0 ISN       0.038700
      7 H5          10.9330     1.1500    -0.8800 hc         0 ISN       0.038700
      8 C3           9.6560    -0.3620     0.0000 c3         0 ISN      -0.079400
      9 H6           9.6620    -1.0240     0.8800 hc         0 ISN       0.039700
     10 H7           9.6620    -1.0240    -0.8800 hc         0 ISN       0.039700
     11 C4           8.3640     0.4740     0.0000 c3         0 ISN      -0.079400
     12 H8           8.3600     1.1350    -0.8800 hc         0 ISN       0.039700
     13 H9           8.3600     1.1350     0.8800 hc         0 ISN       0.039700
     14 C5           7.0820    -0.3790     0.0000 c3         0 ISN      -0.079400
     15 H10          7.0860    -1.0400     0.8800 hc         0 ISN       0.039700
     16 H11          7.0860    -1.0400    -0.8800 hc         0 ISN       0.039700
     17 C6           5.7890     0.4580     0.0000 c3         0 ISN      -0.079400
     18 H12          5.7850     1.1190    -0.8800 hc         0 ISN       0.039700
     19 H13          5.7850     1.1190     0.8800 hc         0 ISN       0.039700
     20 C7           4.5080    -0.3940     0.0000 c3         0 ISN      -0.079400
     21 H14          4.5120    -1.0560     0.8800 hc         0 ISN       0.039700
     22 H15          4.5120    -1.0560    -0.8800 hc         0 ISN       0.039700
     23 C8           3.2150     0.4420     0.0000 c3         0 ISN      -0.079400
     24 H16          3.2110     1.1030    -0.8800 hc         0 ISN       0.039700
     25 H17          3.2110     1.1030     0.8800 hc         0 ISN       0.039700
     26 C9           1.9330    -0.4100     0.0000 c3         0 ISN      -0.079400
     27 H18          1.9370    -1.0720     0.8800 hc         0 ISN       0.039700
     28 H19          1.9370    -1.0720    -0.8800 hc         0 ISN       0.039700
     29 C10          0.6410     0.4260     0.0000 c3         0 ISN      -0.079400
     30 H20          0.6370     1.0870    -0.8800 hc         0 ISN       0.039700
     31 H21          0.6370     1.0870     0.8800 hc         0 ISN       0.039700
     32 C11         -0.6410    -0.4260     0.0000 c3         0 ISN      -0.079400
     33 H22         -0.6370    -1.0870     0.8800 hc         0 ISN       0.039700
     34 H23         -0.6370    -1.0870    -0.8800 hc         0 ISN       0.039700
     35 C12         -1.9330     0.4100     0.0000 c3         0 ISN      -0.079400
     36 H24         -1.9370     1.0720    -0.8800 hc         0 ISN       0.039700
     37 H25         -1.9370     1.0720     0.8800 hc         0 ISN       0.039700
     38 C13         -3.2150    -0.4420     0.0000 c3         0 ISN      -0.079400
     39 H26         -3.2110    -1.1030     0.8800 hc         0 ISN       0.039700
     40 H27         -3.2110    -1.1030    -0.8800 hc         0 ISN       0.039700
     41 C14         -4.5080     0.3940     0.0000 c3         0 ISN      -0.079400
     42 H28         -4.5120     1.0560    -0.8800 hc         0 ISN       0.039700
     43 H29         -4.5120     1.0560     0.8800 hc         0 ISN       0.039700
     44 C15         -5.7890    -0.4580     0.0000 c3         0 ISN      -0.079400
     45 H30         -5.7850    -1.1190     0.8800 hc         0 ISN       0.039700
     46 H31         -5.7850    -1.1190    -0.8800 hc         0 ISN       0.039700
     47 C16         -7.0820     0.3790     0.0000 c3         0 ISN      -0.079400
     48 H32         -7.0860     1.0400    -0.8800 hc         0 ISN       0.039700
     49 H33         -7.0860     1.0400     0.8800 hc         0 ISN       0.039700
     50 C17         -8.3640    -0.4740     0.0000 c3         0 ISN      -0.079400
     51 H34         -8.3600    -1.1350     0.8800 hc         0 ISN       0.039700
     52 H35         -8.3600    -1.1350    -0.8800 hc         0 ISN       0.039700
     53 C18         -9.6560     0.3620     0.0000 c3         0 ISN      -0.079400
     54 H36         -9.6620     1.0240    -0.8800 hc         0 ISN       0.039700
     55 H37         -9.6620     1.0240     0.8800 hc         0 ISN       0.039700
     56 C19        -10.9390    -0.4900     0.0000 c3         0 ISN      -0.080400
     57 H38        -10.9330    -1.1500     0.8800 hc         0 ISN       0.038700
     58 H39        -10.9330    -1.1500    -0.8800 hc         0 ISN       0.038700
     59 C20        -12.2240     0.3540     0.0000 c3         0 ISN      -0.092100
     60 H40        -12.2720     1.0000    -0.8860 hc         0 ISN       0.032700
     61 H41        -13.1190    -0.2800     0.0000 hc         0 ISN       0.032700
     62 H42        -12.2720     1.0000     0.8860 hc         0 ISN       0.032700
@<TRIPOS>BOND
     1     1     2 1   
     2     1     3 1   
     3     1     4 1   
     4     1     5 1   
     5     5     6 1   
     6     5     7 1   
     7     5     8 1   
     8     8     9 1   
     9     8    10 1   
    10     8    11 1   
    11    11    12 1   
    12    11    13 1   
    13    11    14 1   
    14    14    15 1   
    15    14    16 1   
    16    14    17 1   
    17    17    18 1   
    18    17    19 1   
    19    17    20 1   
    20    20    21 1   
    21    20    22 1   
    22    20    23 1   
    23    23    24 1   
    24    23    25 1   
    25    23    26 1   
    26    26    27 1   
    27    26    28 1   
    28    26    29 1   
    29    29    30 1   
    30    29    31 1   
    31    29    32 1   
    32    32    33 1   
    33    32    34 1   
    34    32    35 1   
    35    35    36 1   
    36    35    37 1   
    37    35    38 1   
    38    38    39 1   
    39    38    40 1   
    40    38    41 1   
    41    41    42 1   
    42    41    43 1   
    43    41    44 1   
    44    44    45 1   
    45    44    46 1   
    46    44    47 1   
    47    47    48 1   
    48    47    49 1   
    49    47    50 1   
    50    50    51 1   
    51    50    52 1   
    52    50    53 1   
    53    53    54 1   
    54    53    55 1   
    55    53    56 1   
    56    56    57 1   
    57    56    58 1   
    58    56    59 1   
    59    59    60 1   
    60    59    61 1   
    61    59    62 1   
@<TRIPOS>SUBSTRUCTURE
     1 ISN         1 TEMP              0 ****  ****    0 ROOT
