@<TRIPOS>MOLECULE
PNT
   17    16     1     0     0
SMALL
bcc


@<TRIPOS>ATOM
      1 C1           0.0000    -2.5680     0.3250 c3         0 PNT      -0.092100
      2 H1          -0.8860    -2.6110     0.9720 hc         0 PNT       0.032367
      3 H2           0.8860    -2.6110     0.9720 hc         0 PNT       0.032367
      4 H3           0.0000    -3.4670    -0.3020 hc         0 PNT       0.032367
      5 C2           0.0000    -1.2880    -0.5260 c3         0 PNT      -0.080400
      6 H4           0.8800    -1.2860    -1.1870 hc         0 PNT       0.037700
      7 H5          -0.8800    -1.2860    -1.1870 hc         0 PNT       0.037700
      8 C3           0.0000     0.0000     0.3180 c3         0 PNT      -0.079400
      9 H6           0.8800     0.0000     0.9800 hc         0 PNT       0.039700
     10 H7          -0.8800     0.0000     0.9800 hc         0 PNT       0.039700
     11 C4           0.0000     1.2880    -0.5260 c3         0 PNT      -0.080400
     12 H8          -0.8800     1.2860    -1.1870 hc         0 PNT       0.037700
     13 H9           0.8800     1.2860    -1.1870 hc         0 PNT       0.037700
     14 C5           0.0000     2.5680     0.3250 c3         0 PNT      -0.092100
     15 H10          0.8860     2.6110     0.9720 hc         0 PNT       0.032367
     16 H11          0.0000     3.4670    -0.3020 hc         0 PNT       0.032367
     17 H12         -0.8860     2.6110     0.9720 hc         0 PNT       0.032367
@<TRIPOS>BOND
     1     1     2 1   
     2     1     3 1   
     3     1     4 1   
     4     1     5 1   
     5     5     6 1   
     6     5     7 1   
     7     5     8 1   
     8     8     9 1   
     9     8    10 1   
    10     8    11 1   
    11    11    12 1   
    12    11    13 1   
    13    11    14 1   
    14    14    15 1   
    15    14    16 1   
    16    14    17 1   
@<TRIPOS>SUBSTRUCTURE
     1 PNT         1 TEMP              0 ****  ****    0 ROOT
