@<TRIPOS>MOLECULE
OCN
   26    25     1     0     0
SMALL
bcc


@<TRIPOS>ATOM
      1 C1           0.1650     4.5170     0.0000 c3         0 OCN      -0.092100
      2 H1          -0.4710     4.6440     0.8860 hc         0 OCN       0.032700
      3 H2          -0.4710     4.6440    -0.8860 hc         0 OCN       0.032700
      4 H3           0.9050     5.3260     0.0000 hc         0 OCN       0.032700
      5 C2           0.8410     3.1360     0.0000 c3         0 OCN      -0.080400
      6 H4           1.4960     3.0480    -0.8800 hc         0 OCN       0.038700
      7 H5           1.4960     3.0480     0.8800 hc         0 OCN       0.038700
      8 C3          -0.1650     1.9700     0.0000 c3         0 OCN      -0.079400
      9 H6          -0.8210     2.0580    -0.8800 hc         0 OCN       0.039700
     10 H7          -0.8210     2.0580     0.8800 hc         0 OCN       0.039700
     11 C4           0.5030     0.5830     0.0000 c3         0 OCN      -0.079400
     12 H8           1.1590     0.4960     0.8800 hc         0 OCN       0.039700
     13 H9           1.1590     0.4960    -0.8800 hc         0 OCN       0.039700
     14 C5          -0.5030    -0.5830     0.0000 c3         0 OCN      -0.079400
     15 H10         -1.1590    -0.4960    -0.8800 hc         0 OCN       0.039700
     16 H11         -1.1590    -0.4960     0.8800 hc         0 OCN       0.039700
     17 C6           0.1650    -1.9700     0.0000 c3         0 OCN      -0.079400
     18 H12          0.8210    -2.0580     0.8800 hc         0 OCN       0.039700
     19 H13          0.8210    -2.0580    -0.8800 hc         0 OCN       0.039700
     20 C7          -0.8410    -3.1360     0.0000 c3         0 OCN      -0.080400
     21 H14         -1.4960    -3.0480    -0.8800 hc         0 OCN       0.038700
     22 H15         -1.4960    -3.0480     0.8800 hc         0 OCN       0.038700
     23 C8          -0.1650    -4.5170     0.0000 c3         0 OCN      -0.092100
     24 H16          0.4710    -4.6440     0.8860 hc         0 OCN       0.032700
     25 H17         -0.9050    -5.3260     0.0000 hc         0 OCN       0.032700
     26 H18          0.4710    -4.6440    -0.8860 hc         0 OCN       0.032700
@<TRIPOS>BOND
     1     1     2 1   
     2     1     3 1   
     3     1     4 1   
     4     1     5 1   
     5     5     6 1   
     6     5     7 1   
     7     5     8 1   
     8     8     9 1   
     9     8    10 1   
    10     8    11 1   
    11    11    12 1   
    12    11    13 1   
    13    11    14 1   
    14    14    15 1   
    15    14    16 1   
    16    14    17 1   
    17    17    18 1   
    18    17    19 1   
    19    17    20 1   
    20    20    21 1   
    21    20    22 1   
    22    20    23 1   
    23    23    24 1   
    24    23    25 1   
    25    23    26 1   
@<TRIPOS>SUBSTRUCTURE
     1 OCN         1 TEMP              0 ****  ****    0 ROOT
