@<TRIPOS>MOLECULE
HDC
   50    49     1     0     0
SMALL
bcc


@<TRIPOS>ATOM
      1 C1          -9.6510    -0.3360    -0.0000 c3         0 HDC      -0.092100
      2 H1          -9.7010    -0.9830     0.8860 hc         0 HDC       0.032700
      3 H2          -9.7010    -0.9830    -0.8860 hc         0 HDC       0.032700
      4 H3         -10.5440     0.3000    -0.0000 hc         0 HDC       0.032700
      5 C2          -8.3630     0.5020     0.0000 c3         0 HDC      -0.080400
      6 H4          -8.3550     1.1630    -0.8800 hc         0 HDC       0.038700
      7 H5          -8.3550     1.1630     0.8800 hc         0 HDC       0.038700
      8 C3          -7.0830    -0.3540     0.0000 c3         0 HDC      -0.079400
      9 H6          -7.0910    -1.0150    -0.8800 hc         0 HDC       0.039700
     10 H7          -7.0910    -1.0150     0.8800 hc         0 HDC       0.039700
     11 C4          -5.7880     0.4780     0.0000 c3         0 HDC      -0.079400
     12 H8          -5.7820     1.1390     0.8800 hc         0 HDC       0.039700
     13 H9          -5.7820     1.1390    -0.8800 hc         0 HDC       0.039700
     14 C5          -4.5090    -0.3790     0.0000 c3         0 HDC      -0.079400
     15 H10         -4.5150    -1.0400    -0.8800 hc         0 HDC       0.039700
     16 H11         -4.5150    -1.0400     0.8800 hc         0 HDC       0.039700
     17 C6          -3.2140     0.4530     0.0000 c3         0 HDC      -0.079400
     18 H12         -3.2070     1.1140     0.8800 hc         0 HDC       0.039700
     19 H13         -3.2070     1.1140    -0.8800 hc         0 HDC       0.039700
     20 C7          -1.9350    -0.4040     0.0000 c3         0 HDC      -0.079400
     21 H14         -1.9410    -1.0650    -0.8800 hc         0 HDC       0.039700
     22 H15         -1.9410    -1.0650     0.8800 hc         0 HDC       0.039700
     23 C8          -0.6390     0.4280     0.0000 c3         0 HDC      -0.079400
     24 H16         -0.6330     1.0900     0.8800 hc         0 HDC       0.039700
     25 H17         -0.6330     1.0900    -0.8800 hc         0 HDC       0.039700
     26 C9           0.6390    -0.4280     0.0000 c3         0 HDC      -0.079400
     27 H18          0.6330    -1.0900    -0.8800 hc         0 HDC       0.039700
     28 H19          0.6330    -1.0900     0.8800 hc         0 HDC       0.039700
     29 C10          1.9350     0.4040     0.0000 c3         0 HDC      -0.079400
     30 H20          1.9410     1.0650     0.8800 hc         0 HDC       0.039700
     31 H21          1.9410     1.0650    -0.8800 hc         0 HDC       0.039700
     32 C11          3.2140    -0.4530     0.0000 c3         0 HDC      -0.079400
     33 H22          3.2070    -1.1140    -0.8800 hc         0 HDC       0.039700
     34 H23          3.2070    -1.1140     0.8800 hc         0 HDC       0.039700
     35 C12          4.5090     0.3790     0.0000 c3         0 HDC      -0.079400
     36 H24          4.5150     1.0400     0.8800 hc         0 HDC       0.039700
     37 H25          4.5150     1.0400    -0.8800 hc         0 HDC       0.039700
     38 C13          5.7880    -0.4780     0.0000 c3         0 HDC      -0.079400
     39 H26          5.7820    -1.1390    -0.8800 hc         0 HDC       0.039700
     40 H27          5.7820    -1.1390     0.8800 hc         0 HDC       0.039700
     41 C14          7.0830     0.3540     0.0000 c3         0 HDC      -0.079400
     42 H28          7.0910     1.0150     0.8800 hc         0 HDC       0.039700
     43 H29          7.0910     1.0150    -0.8800 hc         0 HDC       0.039700
     44 C15          8.3630    -0.5020     0.0000 c3         0 HDC      -0.080400
     45 H30          8.3550    -1.1630    -0.8800 hc         0 HDC       0.038700
     46 H31          8.3550    -1.1630     0.8800 hc         0 HDC       0.038700
     47 C16          9.6510     0.3360    -0.0000 c3         0 HDC      -0.092100
     48 H32          9.7010     0.9830     0.8860 hc         0 HDC       0.032700
     49 H33         10.5440    -0.3000    -0.0000 hc         0 HDC       0.032700
     50 H34          9.7010     0.9830    -0.8860 hc         0 HDC       0.032700
@<TRIPOS>BOND
     1     1     2 1   
     2     1     3 1   
     3     1     4 1   
     4     1     5 1   
     5     5     6 1   
     6     5     7 1   
     7     5     8 1   
     8     8     9 1   
     9     8    10 1   
    10     8    11 1   
    11    11    12 1   
    12    11    13 1   
    13    11    14 1   
    14    14    15 1   
    15    14    16 1   
    16    14    17 1   
    17    17    18 1   
    18    17    19 1   
    19    17    20 1   
    20    20    21 1   
    21    20    22 1   
    22    20    23 1   
    23    23    24 1   
    24    23    25 1   
    25    23    26 1   
    26    26    27 1   
    27    26    28 1   
    28    26    29 1   
    29    29    30 1   
    30    29    31 1   
    31    29    32 1   
    32    32    33 1   
    33    32    34 1   
    34    32    35 1   
    35    35    36 1   
    36    35    37 1   
    37    35    38 1   
    38    38    39 1   
    39    38    40 1   
    40    38    41 1   
    41    41    42 1   
    42    41    43 1   
    43    41    44 1   
    44    44    45 1   
    45    44    46 1   
    46    44    47 1   
    47    47    48 1   
    48    47    49 1   
    49    47    50 1   
@<TRIPOS>SUBSTRUCTURE
     1 HDC         1 TEMP              0 ****  ****    0 ROOT
