@<TRIPOS>MOLECULE
DDC
   38    37     1     0     0
SMALL
bcc


@<TRIPOS>ATOM
      1 C1          -0.0910    -7.0850     0.0000 c3         0 DDC      -0.092100
      2 H1           0.5510    -7.1760     0.8860 hc         0 DDC       0.032700
      3 H2           0.5510    -7.1760    -0.8860 hc         0 DDC       0.032700
      4 H3          -0.7820    -7.9360     0.0000 hc         0 DDC       0.032700
      5 C2          -0.8460    -5.7470     0.0000 c3         0 DDC      -0.080400
      6 H4          -1.5040    -5.6960    -0.8800 hc         0 DDC       0.038700
      7 H5          -1.5040    -5.6960     0.8800 hc         0 DDC       0.038700
      8 C3           0.0910    -4.5240     0.0000 c3         0 DDC      -0.079400
      9 H6           0.7500    -4.5740    -0.8800 hc         0 DDC       0.039700
     10 H7           0.7500    -4.5740     0.8800 hc         0 DDC       0.039700
     11 C4          -0.6570    -3.1780     0.0000 c3         0 DDC      -0.079400
     12 H8          -1.3160    -3.1300     0.8800 hc         0 DDC       0.039700
     13 H9          -1.3160    -3.1300    -0.8800 hc         0 DDC       0.039700
     14 C5           0.2800    -1.9570     0.0000 c3         0 DDC      -0.079400
     15 H10          0.9390    -2.0050    -0.8800 hc         0 DDC       0.039700
     16 H11          0.9390    -2.0050     0.8800 hc         0 DDC       0.039700
     17 C6          -0.4680    -0.6110     0.0000 c3         0 DDC      -0.079400
     18 H12         -1.1280    -0.5620     0.8800 hc         0 DDC       0.039700
     19 H13         -1.1280    -0.5620    -0.8800 hc         0 DDC       0.039700
     20 C7           0.4680     0.6110     0.0000 c3         0 DDC      -0.079400
     21 H14          1.1280     0.5620    -0.8800 hc         0 DDC       0.039700
     22 H15          1.1280     0.5620     0.8800 hc         0 DDC       0.039700
     23 C8          -0.2800     1.9570     0.0000 c3         0 DDC      -0.079400
     24 H16         -0.9390     2.0050     0.8800 hc         0 DDC       0.039700
     25 H17         -0.9390     2.0050    -0.8800 hc         0 DDC       0.039700
     26 C9           0.6570     3.1780     0.0000 c3         0 DDC      -0.079400
     27 H18          1.3160     3.1300    -0.8800 hc         0 DDC       0.039700
     28 H19          1.3160     3.1300     0.8800 hc         0 DDC       0.039700
     29 C10         -0.0910     4.5240     0.0000 c3         0 DDC      -0.079400
     30 H20         -0.7500     4.5740     0.8800 hc         0 DDC       0.039700
     31 H21         -0.7500     4.5740    -0.8800 hc         0 DDC       0.039700
     32 C11          0.8460     5.7470     0.0000 c3         0 DDC      -0.080400
     33 H22          1.5040     5.6960    -0.8800 hc         0 DDC       0.038700
     34 H23          1.5040     5.6960     0.8800 hc         0 DDC       0.038700
     35 C12          0.0910     7.0850     0.0000 c3         0 DDC      -0.092100
     36 H24         -0.5510     7.1760     0.8860 hc         0 DDC       0.032700
     37 H25          0.7820     7.9360     0.0000 hc         0 DDC       0.032700
     38 H26         -0.5510     7.1760    -0.8860 hc         0 DDC       0.032700
@<TRIPOS>BOND
     1     1     2 1   
     2     1     3 1   
     3     1     4 1   
     4     1     5 1   
     5     5     6 1   
     6     5     7 1   
     7     5     8 1   
     8     8     9 1   
     9     8    10 1   
    10     8    11 1   
    11    11    12 1   
    12    11    13 1   
    13    11    14 1   
    14    14    15 1   
    15    14    16 1   
    16    14    17 1   
    17    17    18 1   
    18    17    19 1   
    19    17    20 1   
    20    20    21 1   
    21    20    22 1   
    22    20    23 1   
    23    23    24 1   
    24    23    25 1   
    25    23    26 1   
    26    26    27 1   
    27    26    28 1   
    28    26    29 1   
    29    29    30 1   
    30    29    31 1   
    31    29    32 1   
    32    32    33 1   
    33    32    34 1   
    34    32    35 1   
    35    35    36 1   
    36    35    37 1   
    37    35    38 1   
@<TRIPOS>SUBSTRUCTURE
     1 DDC         1 TEMP              0 ****  ****    0 ROOT
